ACP
                    3D
 Schrodinger Suite 2023-1.
 17 17  0  0  1  0            999 V2000
    1.5220    6.0160   -1.5480 C   0  0  0  0  0  0
    1.4240    7.3620   -0.9010 C   0  0  0  0  0  0
    1.6950    7.5700    0.4610 C   0  0  0  0  0  0
    1.6370    8.8530    1.0040 C   0  0  0  0  0  0
    1.3040    9.9410    0.1940 C   0  0  0  0  0  0
    1.0240    9.7420   -1.1620 C   0  0  0  0  0  0
    1.0890    8.4640   -1.7080 C   0  0  0  0  0  0
    1.2480    5.8830   -2.7360 O   0  0  0  0  0  0
    1.9590    4.8180   -0.7410 C   0  0  0  0  0  0
    1.2670   10.9410    0.6190 H   0  0  0  0  0  0
    1.9530    6.7370    1.1070 H   0  0  0  0  0  0
    1.8750    9.0040    2.0530 H   0  0  0  0  0  0
    0.7550   10.5820   -1.7970 H   0  0  0  0  0  0
    0.8860    8.3040   -2.7610 H   0  0  0  0  0  0
    1.0450    4.3290   -0.3750 H   0  0  0  0  0  0
    2.4490    4.0980   -1.4030 H   0  0  0  0  0  0
    2.6200    5.0530    0.0940 H   0  0  0  0  0  0
  1  2  1  0  0  0
  1  8  2  0  0  0
  1  9  1  0  0  0
  2  3  2  0  0  0
  2  7  1  0  0  0
  3  4  1  0  0  0
  3 11  1  0  0  0
  4  5  2  0  0  0
  4 12  1  0  0  0
  5  6  1  0  0  0
  5 10  1  0  0  0
  6  7  2  0  0  0
  6 13  1  0  0  0
  7 14  1  0  0  0
  9 15  1  0  0  0
  9 16  1  0  0  0
  9 17  1  0  0  0
M  END
> <i_m_stars>
0

> <s_m_entry_id>
9

> <s_m_entry_name>
Structure9

> <s_pdb_PDB_TITLE>
ZnH_noH2O_qsite_1.01

> <r_pdb_PDB_CRYST1_a>
66.067

> <r_pdb_PDB_CRYST1_b>
61.568

> <r_pdb_PDB_CRYST1_c>
65.421

> <r_pdb_PDB_CRYST1_alpha>
90

> <r_pdb_PDB_CRYST1_beta>
90

> <r_pdb_PDB_CRYST1_gamma>
90

> <s_pdb_PDB_CRYST1_Space_Group>
P 1

> <i_pdb_PDB_CRYST1_z>
0

> <s_pdb_PDB_format_version>
3.0

> <s_m_Source_Path>
E:\Research\project\Small_CA\Substrate

> <s_m_Source_File>
1BN1_Qsite_ZnH.pdb

> <i_m_Source_File_Index>
1

$$$$
